/*--------------------------------*- C++ -*----------------------------------*\
| =========                 |                                                 |
| \\      /  F ield         | OpenFOAM: The Open Source CFD Toolbox           |
|  \\    /   O peration     | Version:  v2412                                 |
|   \\  /    A nd           | Website:  www.openfoam.com                      |
|    \\/     M anipulation  |                                                 |
\*---------------------------------------------------------------------------*/
FoamFile
{
    version     2.0;
    format      ascii;
    class       dictionary;
    location    "constant";
    object      reactingCloud1Properties;
}
// * * * * * * * * * * * * * * * * * * * * * * * * * * * * * * * * * * * * * //

solution
{
    active          true;
    coupled         false;
    transient       yes;
    cellValueSourceCorrection off;
    maxCo           0.3;

    sourceTerms
    {
        schemes
        {
            rho             explicit 1;
            U               explicit 1;
            Yi              explicit 1;
            h               explicit 1;
            radiation       explicit 1;
        }
    }

    interpolationSchemes
    {
        rho             cell;
        U               cellPoint;
        thermo:mu       cell;
        T               cell;
        Cp              cell;
        kappa           cell;
        p               cell;
    }

    integrationSchemes
    {
        U               Euler;
        T               Euler;
    }
}


constantProperties
{
    rho0            1000;
    T0              350;
    Cp0             4100;

    volumeUpdateMethod  constantRho;
}


subModels
{
    particleForces
    {
        sphereDrag;
        gravity;
    }

    injectionModels
    {
        model1
        {
            type            coneNozzleInjection;
            SOI             0;
            massTotal       6.0e-6;
            parcelBasisType mass;
            injectionMethod disc;
            flowType        flowRateAndDischarge;
            outerDiameter   1.9e-4;
            innerDiameter   0;
            duration        1.25e-3;
            position        (0.05 0.05 0);
            direction       (0 0 -1);
            parcelsPerSecond 20000000;
            flowRateProfile table
            (
                (0              0.1272)
                (4.16667e-05    6.1634)
                (8.33333e-05    9.4778)
                (0.000125       9.5806)
                (0.000166667    9.4184)
                (0.000208333    9.0926)
                (0.00025        8.7011)
                (0.000291667    8.2239)
                (0.000333333    8.0401)
                (0.000375       8.8450)
                (0.000416667    8.9174)
                (0.000458333    8.8688)
                (0.0005         8.8882)
                (0.000541667    8.6923)
                (0.000583333    8.0014)
                (0.000625       7.2582)
                (0.000666667    7.2757)
                (0.000708333    6.9680)
                (0.00075        6.7608)
                (0.000791667    6.6502)
                (0.000833333    6.7695)
                (0.000875       5.5774)
                (0.000916667    4.8649)
                (0.000958333    5.0805)
                (0.001          4.9547)
                (0.00104167     4.5613)
                (0.00108333     4.4536)
                (0.001125       5.2651)
                (0.00116667     5.2560)
                (0.00120833     5.1737)
                (0.00125        3.9213)
                (0.001251       0.0000)
                (1000           0.0000)
            );

            Cd              constant 0.9;

            thetaInner      constant 0.0;
            thetaOuter      constant 10.0;

            sizeDistribution
            {
                type        RosinRammler;

                RosinRammlerDistribution
                {
                    minValue        1e-06;
                    maxValue        0.00015;
                    lambda          0.00015;
                    n               3;
                }
            }
        }
    }
	
    dispersionModel none;

    patchInteractionModel standardWallInteraction;

    heatTransferModel RanzMarshall;

    compositionModel singleMixtureFraction;

    phaseChangeModel liquidEvaporation;

    devolatilisationModel none;

    surfaceReactionModel none;

    stochasticCollisionModel none;

    surfaceFilmModel none;

    radiation       off;

    standardWallInteractionCoeffs
    {
        type            rebound;
    }

    RanzMarshallCoeffs
    {
        BirdCorrection  off;
    }

    singleMixtureFractionCoeffs
    {
        phases
        (
            gas
            {
            }
            liquid
            {
                H2O 1;
            }
            solid
            {
            }
        );
        YGasTot0        0;
        YLiquidTot0     1;
        YSolidTot0      0;
    }

    liquidEvaporationCoeffs
    {
        enthalpyTransfer enthalpyDifference; // latentHeat;

        activeLiquids   ( H2O );
    }
}


cloudFunctions
{}


// ************************************************************************* //
